# generated using pymatgen
data_Li26Co27HO54
_symmetry_space_group_name_H-M   'P 1'
_cell_length_a   14.97813000
_cell_length_b   14.97813000
_cell_length_c   14.97813000
_cell_angle_alpha   33.00000000
_cell_angle_beta   33.00000000
_cell_angle_gamma   33.00000000
_symmetry_Int_Tables_number   1
_chemical_formula_structural   Li26Co27HO54
_chemical_formula_sum   'Li26 Co27 H1 O54'
_cell_volume   887.02987540
_cell_formula_units_Z   1
loop_
 _symmetry_equiv_pos_site_id
 _symmetry_equiv_pos_as_xyz
  1  'x, y, z'
loop_
 _atom_site_type_symbol
 _atom_site_label
 _atom_site_symmetry_multiplicity
 _atom_site_fract_x
 _atom_site_fract_y
 _atom_site_fract_z
 _atom_site_occupancy
  Li  Li0  1  0.16666667  0.16666667  0.16666667  1.0
  Li  Li1  1  0.16666667  0.16666667  0.50000000  1.0
  Li  Li2  1  0.16666667  0.16666667  0.83333333  1.0
  Li  Li3  1  0.16666667  0.50000000  0.16666667  1.0
  Li  Li4  1  0.16666667  0.50000000  0.50000000  1.0
  Li  Li5  1  0.16666667  0.50000000  0.83333333  1.0
  H  H6  1  0.16666667  0.83333333  0.16666667  1
  Li  Li7  1  0.16666667  0.83333333  0.50000000  1.0
  Li  Li8  1  0.16666667  0.83333333  0.83333333  1.0
  Li  Li9  1  0.50000000  0.16666667  0.16666667  1.0
  Li  Li10  1  0.50000000  0.16666667  0.50000000  1.0
  Li  Li11  1  0.50000000  0.16666667  0.83333333  1.0
  Li  Li12  1  0.50000000  0.50000000  0.16666667  1.0
  Li  Li13  1  0.50000000  0.50000000  0.50000000  1.0
  Li  Li14  1  0.50000000  0.50000000  0.83333333  1.0
  Li  Li15  1  0.50000000  0.83333333  0.16666667  1.0
  Li  Li16  1  0.50000000  0.83333333  0.50000000  1.0
  Li  Li17  1  0.50000000  0.83333333  0.83333333  1.0
  Li  Li18  1  0.83333333  0.16666667  0.16666667  1.0
  Li  Li19  1  0.83333333  0.16666667  0.50000000  1.0
  Li  Li20  1  0.83333333  0.16666667  0.83333333  1.0
  Li  Li21  1  0.83333333  0.50000000  0.16666667  1.0
  Li  Li22  1  0.83333333  0.50000000  0.50000000  1.0
  Li  Li23  1  0.83333333  0.50000000  0.83333333  1.0
  Li  Li24  1  0.83333333  0.83333333  0.16666667  1.0
  Li  Li25  1  0.83333333  0.83333333  0.50000000  1.0
  Li  Li26  1  0.83333333  0.83333333  0.83333333  1.0
  Co  Co27  1  0.00000000  0.00000000  0.00000000  1.0
  Co  Co28  1  0.00000000  0.00000000  0.33333333  1.0
  Co  Co29  1  0.00000000  0.00000000  0.66666667  1.0
  Co  Co30  1  1.00000000  0.33333333  0.00000000  1.0
  Co  Co31  1  1.00000000  0.33333333  0.33333333  1.0
  Co  Co32  1  1.00000000  0.33333333  0.66666667  1.0
  Co  Co33  1  1.00000000  0.66666667  0.00000000  1.0
  Co  Co34  1  1.00000000  0.66666667  0.33333333  1.0
  Co  Co35  1  1.00000000  0.66666667  0.66666667  1.0
  Co  Co36  1  0.33333333  0.00000000  1.00000000  1.0
  Co  Co37  1  0.33333333  0.00000000  0.33333333  1.0
  Co  Co38  1  0.33333333  0.00000000  0.66666667  1.0
  Co  Co39  1  0.33333333  0.33333333  1.00000000  1.0
  Co  Co40  1  0.33333333  0.33333333  0.33333333  1.0
  Co  Co41  1  0.33333333  0.33333333  0.66666667  1.0
  Co  Co42  1  0.33333333  0.66666667  1.00000000  1.0
  Co  Co43  1  0.33333333  0.66666667  0.33333333  1.0
  Co  Co44  1  0.33333333  0.66666667  0.66666667  1.0
  Co  Co45  1  0.66666667  0.00000000  1.00000000  1.0
  Co  Co46  1  0.66666667  0.00000000  0.33333333  1.0
  Co  Co47  1  0.66666667  0.00000000  0.66666667  1.0
  Co  Co48  1  0.66666667  0.33333333  1.00000000  1.0
  Co  Co49  1  0.66666667  0.33333333  0.33333333  1.0
  Co  Co50  1  0.66666667  0.33333333  0.66666667  1.0
  Co  Co51  1  0.66666667  0.66666667  1.00000000  1.0
  Co  Co52  1  0.66666667  0.66666667  0.33333333  1.0
  Co  Co53  1  0.66666667  0.66666667  0.66666667  1.0
  O  O54  1  0.24652900  0.24652900  0.24652900  1.0
  O  O55  1  0.24652900  0.24652900  0.57986233  1.0
  O  O56  1  0.24652900  0.24652900  0.91319567  1.0
  O  O57  1  0.24652900  0.57986233  0.24652900  1.0
  O  O58  1  0.24652900  0.57986233  0.57986233  1.0
  O  O59  1  0.24652900  0.57986233  0.91319567  1.0
  O  O60  1  0.24652900  0.91319567  0.24652900  1.0
  O  O61  1  0.24652900  0.91319567  0.57986233  1.0
  O  O62  1  0.24652900  0.91319567  0.91319567  1.0
  O  O63  1  0.57986233  0.24652900  0.24652900  1.0
  O  O64  1  0.57986233  0.24652900  0.57986233  1.0
  O  O65  1  0.57986233  0.24652900  0.91319567  1.0
  O  O66  1  0.57986233  0.57986233  0.24652900  1.0
  O  O67  1  0.57986233  0.57986233  0.57986233  1.0
  O  O68  1  0.57986233  0.57986233  0.91319567  1.0
  O  O69  1  0.57986233  0.91319567  0.24652900  1.0
  O  O70  1  0.57986233  0.91319567  0.57986233  1.0
  O  O71  1  0.57986233  0.91319567  0.91319567  1.0
  O  O72  1  0.91319567  0.24652900  0.24652900  1.0
  O  O73  1  0.91319567  0.24652900  0.57986233  1.0
  O  O74  1  0.91319567  0.24652900  0.91319567  1.0
  O  O75  1  0.91319567  0.57986233  0.24652900  1.0
  O  O76  1  0.91319567  0.57986233  0.57986233  1.0
  O  O77  1  0.91319567  0.57986233  0.91319567  1.0
  O  O78  1  0.91319567  0.91319567  0.24652900  1.0
  O  O79  1  0.91319567  0.91319567  0.57986233  1.0
  O  O80  1  0.91319567  0.91319567  0.91319567  1.0
  O  O81  1  0.08680433  0.08680433  0.08680433  1.0
  O  O82  1  0.08680433  0.08680433  0.42013767  1.0
  O  O83  1  0.08680433  0.08680433  0.75347100  1.0
  O  O84  1  0.08680433  0.42013767  0.08680433  1.0
  O  O85  1  0.08680433  0.42013767  0.42013767  1.0
  O  O86  1  0.08680433  0.42013767  0.75347100  1.0
  O  O87  1  0.08680433  0.75347100  0.08680433  1.0
  O  O88  1  0.08680433  0.75347100  0.42013767  1.0
  O  O89  1  0.08680433  0.75347100  0.75347100  1.0
  O  O90  1  0.42013767  0.08680433  0.08680433  1.0
  O  O91  1  0.42013767  0.08680433  0.42013767  1.0
  O  O92  1  0.42013767  0.08680433  0.75347100  1.0
  O  O93  1  0.42013767  0.42013767  0.08680433  1.0
  O  O94  1  0.42013767  0.42013767  0.42013767  1.0
  O  O95  1  0.42013767  0.42013767  0.75347100  1.0
  O  O96  1  0.42013767  0.75347100  0.08680433  1.0
  O  O97  1  0.42013767  0.75347100  0.42013767  1.0
  O  O98  1  0.42013767  0.75347100  0.75347100  1.0
  O  O99  1  0.75347100  0.08680433  0.08680433  1.0
  O  O100  1  0.75347100  0.08680433  0.42013767  1.0
  O  O101  1  0.75347100  0.08680433  0.75347100  1.0
  O  O102  1  0.75347100  0.42013767  0.08680433  1.0
  O  O103  1  0.75347100  0.42013767  0.42013767  1.0
  O  O104  1  0.75347100  0.42013767  0.75347100  1.0
  O  O105  1  0.75347100  0.75347100  0.08680433  1.0
  O  O106  1  0.75347100  0.75347100  0.42013767  1.0
  O  O107  1  0.75347100  0.75347100  0.75347100  1.0
