data_image0
_cell_length_a       8.50804
_cell_length_b       8.50804
_cell_length_c       14.9781
_cell_angle_alpha    73.5
_cell_angle_beta     73.5
_cell_angle_gamma    60

_symmetry_space_group_name_H-M    "P 1"
_symmetry_int_tables_number       1

loop_
  _symmetry_equiv_pos_as_xyz
  'x, y, z'

loop_
  _atom_site_label
  _atom_site_occupancy
  _atom_site_fract_x
  _atom_site_fract_y
  _atom_site_fract_z
  _atom_site_thermal_displace_type
  _atom_site_B_iso_or_equiv
  _atom_site_type_symbol
  H1       1.0000 0.16667  0.16667  0.16667  Biso   1.000  H
  Li1      1.0000 0.16667  0.16667  0.50000  Biso   1.000  Li
  H2       1.0000 0.16667  0.16667  0.83333  Biso   1.000  H
  H3       1.0000 0.16667  0.50000  0.16667  Biso   1.000  H
  H4       1.0000 0.16667  0.50000  0.50000  Biso   1.000  H
  Li2      1.0000 0.16667  0.50000  0.83333  Biso   1.000  Li
  H5       1.0000 0.16667  0.83333  0.16667  Biso   1.000  H
  Li3      1.0000 0.16667  0.83333  0.50000  Biso   1.000  Li
  Li4      1.0000 0.16667  0.83333  0.83333  Biso   1.000  Li
  Li5      1.0000 0.50000  0.16667  0.16667  Biso   1.000  Li
  H6       1.0000 0.50000  0.16667  0.50000  Biso   1.000  H
  H7       1.0000 0.50000  0.16667  0.83333  Biso   1.000  H
  H8       1.0000 0.50000  0.50000  0.16667  Biso   1.000  H
  Li6      1.0000 0.50000  0.50000  0.50000  Biso   1.000  Li
  Li7      1.0000 0.50000  0.50000  0.83333  Biso   1.000  Li
  H9       1.0000 0.50000  0.83333  0.16667  Biso   1.000  H
  H10      1.0000 0.50000  0.83333  0.50000  Biso   1.000  H
  H11      1.0000 0.50000  0.83333  0.83333  Biso   1.000  H
  Li8      1.0000 0.83333  0.16667  0.16667  Biso   1.000  Li
  H12      1.0000 0.83333  0.16667  0.50000  Biso   1.000  H
  H13      1.0000 0.83333  0.16667  0.83333  Biso   1.000  H
  Li9      1.0000 0.83333  0.50000  0.16667  Biso   1.000  Li
  H14      1.0000 0.83333  0.50000  0.50000  Biso   1.000  H
  Li10     1.0000 0.83333  0.50000  0.83333  Biso   1.000  Li
  H15      1.0000 0.83333  0.83333  0.16667  Biso   1.000  H
  Li11     1.0000 0.83333  0.83333  0.50000  Biso   1.000  Li
  Li12     1.0000 0.83333  0.83333  0.83333  Biso   1.000  Li
  Co1      1.0000 0.00000  0.00000  0.00000  Biso   1.000  Co
  Co2      1.0000 0.00000  0.00000  0.33333  Biso   1.000  Co
  Co3      1.0000 0.00000  0.00000  0.66667  Biso   1.000  Co
  Co4      1.0000 0.00000  0.33333  0.00000  Biso   1.000  Co
  Co5      1.0000 0.00000  0.33333  0.33333  Biso   1.000  Co
  Co6      1.0000 0.00000  0.33333  0.66667  Biso   1.000  Co
  Co7      1.0000 0.00000  0.66667  0.00000  Biso   1.000  Co
  Co8      1.0000 0.00000  0.66667  0.33333  Biso   1.000  Co
  Co9      1.0000 0.00000  0.66667  0.66667  Biso   1.000  Co
  Co10     1.0000 0.33333  0.00000  0.00000  Biso   1.000  Co
  Co11     1.0000 0.33333  0.00000  0.33333  Biso   1.000  Co
  Co12     1.0000 0.33333  0.00000  0.66667  Biso   1.000  Co
  Co13     1.0000 0.33333  0.33333  0.00000  Biso   1.000  Co
  Co14     1.0000 0.33333  0.33333  0.33333  Biso   1.000  Co
  Co15     1.0000 0.33333  0.33333  0.66667  Biso   1.000  Co
  Co16     1.0000 0.33333  0.66667  0.00000  Biso   1.000  Co
  Co17     1.0000 0.33333  0.66667  0.33333  Biso   1.000  Co
  Co18     1.0000 0.33333  0.66667  0.66667  Biso   1.000  Co
  Co19     1.0000 0.66667  0.00000  0.00000  Biso   1.000  Co
  Co20     1.0000 0.66667  0.00000  0.33333  Biso   1.000  Co
  Co21     1.0000 0.66667  0.00000  0.66667  Biso   1.000  Co
  Co22     1.0000 0.66667  0.33333  0.00000  Biso   1.000  Co
  Co23     1.0000 0.66667  0.33333  0.33333  Biso   1.000  Co
  Co24     1.0000 0.66667  0.33333  0.66667  Biso   1.000  Co
  Co25     1.0000 0.66667  0.66667  0.00000  Biso   1.000  Co
  Co26     1.0000 0.66667  0.66667  0.33333  Biso   1.000  Co
  Co27     1.0000 0.66667  0.66667  0.66667  Biso   1.000  Co
  O1       1.0000 0.24653  0.24653  0.26041  Biso   1.000  O
  O2       1.0000 0.24653  0.24653  0.59375  Biso   1.000  O
  O3       1.0000 0.24653  0.24653  0.92708  Biso   1.000  O
  O4       1.0000 0.24653  0.57986  0.26041  Biso   1.000  O
  O5       1.0000 0.24653  0.57986  0.59375  Biso   1.000  O
  O6       1.0000 0.24653  0.57986  0.92708  Biso   1.000  O
  O7       1.0000 0.24653  0.91320  0.26041  Biso   1.000  O
  O8       1.0000 0.24653  0.91320  0.59375  Biso   1.000  O
  O9       1.0000 0.24653  0.91320  0.92708  Biso   1.000  O
  O10      1.0000 0.57986  0.24653  0.26041  Biso   1.000  O
  O11      1.0000 0.57986  0.24653  0.59375  Biso   1.000  O
  O12      1.0000 0.57986  0.24653  0.92708  Biso   1.000  O
  O13      1.0000 0.57986  0.57986  0.26041  Biso   1.000  O
  O14      1.0000 0.57986  0.57986  0.59375  Biso   1.000  O
  O15      1.0000 0.57986  0.57986  0.92708  Biso   1.000  O
  O16      1.0000 0.57986  0.91320  0.26041  Biso   1.000  O
  O17      1.0000 0.57986  0.91320  0.59375  Biso   1.000  O
  O18      1.0000 0.57986  0.91320  0.92708  Biso   1.000  O
  O19      1.0000 0.91320  0.24653  0.26041  Biso   1.000  O
  O20      1.0000 0.91320  0.24653  0.59375  Biso   1.000  O
  O21      1.0000 0.91320  0.24653  0.92708  Biso   1.000  O
  O22      1.0000 0.91320  0.57986  0.26041  Biso   1.000  O
  O23      1.0000 0.91320  0.57986  0.59375  Biso   1.000  O
  O24      1.0000 0.91320  0.57986  0.92708  Biso   1.000  O
  O25      1.0000 0.91320  0.91320  0.26041  Biso   1.000  O
  O26      1.0000 0.91320  0.91320  0.59375  Biso   1.000  O
  O27      1.0000 0.91320  0.91320  0.92708  Biso   1.000  O
  O28      1.0000 0.08680  0.08680  0.07292  Biso   1.000  O
  O29      1.0000 0.08680  0.08680  0.40625  Biso   1.000  O
  O30      1.0000 0.08680  0.08680  0.73959  Biso   1.000  O
  O31      1.0000 0.08680  0.42014  0.07292  Biso   1.000  O
  O32      1.0000 0.08680  0.42014  0.40625  Biso   1.000  O
  O33      1.0000 0.08680  0.42014  0.73959  Biso   1.000  O
  O34      1.0000 0.08680  0.75347  0.07292  Biso   1.000  O
  O35      1.0000 0.08680  0.75347  0.40625  Biso   1.000  O
  O36      1.0000 0.08680  0.75347  0.73959  Biso   1.000  O
  O37      1.0000 0.42014  0.08680  0.07292  Biso   1.000  O
  O38      1.0000 0.42014  0.08680  0.40625  Biso   1.000  O
  O39      1.0000 0.42014  0.08680  0.73959  Biso   1.000  O
  O40      1.0000 0.42014  0.42014  0.07292  Biso   1.000  O
  O41      1.0000 0.42014  0.42014  0.40625  Biso   1.000  O
  O42      1.0000 0.42014  0.42014  0.73959  Biso   1.000  O
  O43      1.0000 0.42014  0.75347  0.07292  Biso   1.000  O
  O44      1.0000 0.42014  0.75347  0.40625  Biso   1.000  O
  O45      1.0000 0.42014  0.75347  0.73959  Biso   1.000  O
  O46      1.0000 0.75347  0.08680  0.07292  Biso   1.000  O
  O47      1.0000 0.75347  0.08680  0.40625  Biso   1.000  O
  O48      1.0000 0.75347  0.08680  0.73959  Biso   1.000  O
  O49      1.0000 0.75347  0.42014  0.07292  Biso   1.000  O
  O50      1.0000 0.75347  0.42014  0.40625  Biso   1.000  O
  O51      1.0000 0.75347  0.42014  0.73959  Biso   1.000  O
  O52      1.0000 0.75347  0.75347  0.07292  Biso   1.000  O
  O53      1.0000 0.75347  0.75347  0.40625  Biso   1.000  O
  O54      1.0000 0.75347  0.75347  0.73959  Biso   1.000  O
